LTspice 24.0.11 for Windows
Circuit: * C:\Users\minsu\Documents\LTspice\01_basics\01_basics.asc
Start Time: Sat Apr 13 07:30:54 2024
solver = Normal
Maximum thread count: 16
tnom = 27
temp = 27
method = modified trap
.OP point found by inspection.
Total elapsed time: 0.038 seconds.

